Circuit: * C:\users\wei\Desktop\T2\schematic\Draft1.asc

WARNING: Less than two connections to node VSINE.  This node is used by V2.
Direct Newton iteration for .op point succeeded.

Date: Thu May 14 13:37:35 2020
Total elapsed time: 0.035 seconds.

tnom = 27
temp = 27
method = modified trap
totiter = 2091
traniter = 2088
tranpoints = 1045
accept = 1045
rejected = 0
matrix size = 4
fillins = 0
solver = Normal
Matrix Compiler1: 64 bytes object code size  0.6/0.7/[0.7]
Matrix Compiler2: 174 bytes object code size  0.6/0.7/[0.7]

