Circuit: * C:\users\wei\Desktop\T2\schematic\T2_1_RC_op.asc

Direct Newton iteration for .op point succeeded.

Date: Sat May 16 10:54:13 2020
Total elapsed time: 0.028 seconds.

tnom = 27
temp = 27
method = trap
totiter = 3
traniter = 0
tranpoints = 0
accept = 0
rejected = 0
matrix size = 3
fillins = 0
solver = Normal
Matrix Compiler1: 50 bytes object code size
Matrix Compiler2: 175 bytes object code size
