Circuit: * C:\users\wei\Desktop\T2\schematic\T2_3_RC_trans.asc

Direct Newton iteration for .op point succeeded.

Date: Sat May 23 12:10:20 2020
Total elapsed time: 0.038 seconds.

tnom = 27
temp = 27
method = modified trap
totiter = 2087
traniter = 2084
tranpoints = 1043
accept = 1043
rejected = 0
matrix size = 3
fillins = 0
solver = Normal
Matrix Compiler1: 50 bytes object code size  0.5/0.5/[0.5]
Matrix Compiler2: 175 bytes object code size  0.5/0.5/[0.6]

