Circuit: * C:\users\wei\Desktop\T2\schematic\T3_1_RC_ac.asc


Date: Sat May 23 12:14:32 2020
Total elapsed time: 0.023 seconds.

tnom = 27
temp = 27
method = trap
totiter = 0
traniter = 0
tranpoints = 0
accept = 0
rejected = 0
matrix size = 3
fillins = 0
solver = Normal

