Circuit: * C:\users\wei\Desktop\T2\schematic\T4_2_VD.asc

Direct Newton iteration for .op point succeeded.

Date: Sat May 23 15:08:58 2020
Total elapsed time: 0.040 seconds.

tnom = 27
temp = 27
method = modified trap
totiter = 2091
traniter = 2088
tranpoints = 1045
accept = 1045
rejected = 0
matrix size = 3
fillins = 0
solver = Normal
Matrix Compiler1:       3 opcodes  0.5/[0.5]/0.6
Matrix Compiler2:      15 opcodes  0.5/[0.5]/0.6

