Circuit: * C:\users\wei\Desktop\T2\schematic\T5_1_sg.asc

Direct Newton iteration for .op point succeeded.
Ignoring empty pin current: Ix(u1:3)
Ignoring empty pin current: Ix(u1:3)

Date: Sat May 23 11:28:10 2020
Total elapsed time: 0.761 seconds.

tnom = 27
temp = 27
method = modified trap
totiter = 100037
traniter = 100034
tranpoints = 50018
accept = 50018
rejected = 0
matrix size = 7
fillins = 1
solver = Normal
Matrix Compiler1: 254 bytes object code size  0.7/0.7/[0.7]
Matrix Compiler2:      42 opcodes  0.7/[0.7]/0.7

