Circuit: * C:\users\wei\Desktop\T2\schematic\T5_6_sg_opamp.asc

R3: both pins shorted together -- ignoring.
Early termination of direct N-R iteration.
Direct Newton iteration failed to find .op point.  (Use ".option noopiter" to skip.)
Starting Gmin stepping
Gmin = 10
Gmin = 1.07374
Gmin = 0.115292
Gmin = 0.0123794
Gmin = 0.00132923
Gmin = 0.000142725
Gmin = 1.5325e-005
Gmin = 1.6455e-006
Gmin = 1.76685e-007
Gmin = 1.89714e-008
Gmin = 2.03704e-009
Gmin = 2.18725e-010
Gmin = 2.34854e-011
Gmin = 2.52173e-012
Gmin = 2.70769e-013
Gmin = 0
Gmin stepping succeeded in finding the operating point.

Ignoring empty pin current: Ix(u1:3)
Ignoring empty pin current: Ix(u1:3)

Date: Tue May 19 17:52:37 2020
Total elapsed time: 11.416 seconds.

tnom = 27
temp = 27
method = modified trap
totiter = 200610
traniter = 200038
tranpoints = 100018
accept = 100018
rejected = 0
matrix size = 74
fillins = 543
solver = Normal
Matrix Compiler1: 63.05 KB object code size  11.9/7.1/[4.8]
Matrix Compiler2: 14.93 KB object code size  4.5/4.1/[2.3]

