Circuit: * C:\users\wei\Desktop\T2\schematic\T5_8_pln_filtered.asc

R3: both pins shorted together -- ignoring.
Early termination of direct N-R iteration.
Direct Newton iteration failed to find .op point.  (Use ".option noopiter" to skip.)
Starting Gmin stepping
Gmin = 10
Gmin = 1.07374
Gmin = 0.115292
Gmin = 0.0123794
Gmin = 0.00132923
Gmin = 0.000142725
Gmin = 1.5325e-005
Gmin = 1.6455e-006
Gmin = 1.76685e-007
Gmin = 1.89714e-008
Gmin = 2.03704e-009
vernier = 0.5
vernier = 0.25
vernier = 0.125
vernier = 0.0625
vernier = 0.03125
Gmin = 1.03488e-009
vernier = 0.015625
vernier = 0.0078125
vernier = 0.00390625
vernier = 0.00195313
vernier = 0.000976563
vernier = 0.000488281
Gmin = 0
Gmin stepping succeeded in finding the operating point.

Ignoring empty pin current: Ix(u1:3)
Ignoring empty pin current: Ix(u1:3)

Date: Sat May 23 16:24:39 2020
Total elapsed time: 7.597 seconds.

tnom = 27
temp = 27
method = modified trap
totiter = 372719
traniter = 370985
tranpoints = 105587
accept = 103828
rejected = 1759
matrix size = 80
fillins = 681
solver = Normal
Matrix Compiler1: 80.49 KB object code size  16.1/7.8/[5.4]
Matrix Compiler2: 17.58 KB object code size  4.2/10.2/[2.5]

